*KEYWORD       
*CONTROL_TERMINATION
     0.015                                                  
*DATABASE_BINARY_D3PLOT
    0.0002                                        
         0                                                  
*NODE
       1              0.              0.              0.       0       0
       2             10.              0.              0.       0       0
       3             20.              0.              0.       0       0
       4             30.              0.              0.       0       0
       5             40.              0.              0.       0       0
       6             50.              0.              0.       0       0
       7             60.              0.              0.       0       0
       8             70.              0.              0.       0       0
       9             80.              0.              0.       0       0
      10             90.              0.              0.       0       0
      11            100.              0.              0.       0       0
      12              0.             10.              0.       0       0
      13             10.             10.              0.       0       0
      14             20.             10.              0.       0       0
      15             30.             10.              0.       0       0
      16             40.             10.              0.       0       0
      17             50.             10.              0.       0       0
      18             60.             10.              0.       0       0
      19             70.             10.              0.       0       0
      20             80.             10.              0.       0       0
$ ... 1432 like lines cut
*ELEMENT_SHELL
       1       1       1       2      13      12
       2       1       2       3      14      13
       3       1       3       4      15      14
       4       1       4       5      16      15
       5       1       5       6      17      16
       6       1       6       7      18      17
       7       1       7       8      19      18
       8       1       8       9      20      19
       9       1       9      10      21      20
      10       1      10      11      22      21
      11       1      12      13      24      23
      12       1      13      14      25      24
      13       1      14      15      26      25
      14       1      15      16      27      26
      15       1      16      17      28      27
      16       1      17      18      29      28
      17       1      18      19      30      29
      18       1      19      20      31      30
      19       1      20      21      32      31
      20       1      21      22      33      32
$ ... 80 like lines cut
*ELEMENT_SOLID
     101       2
     122     123     134     133     243     244     255     254       0       0
     102       2
     123     124     135     134     244     245     256     255       0       0
     103       2
     124     125     136     135     245     246     257     256       0       0
     104       2
     125     126     137     136     246     247     258     257       0       0
     105       2
     126     127     138     137     247     248     259     258       0       0
     106       2
     127     128     139     138     248     249     260     259       0       0
     107       2
     128     129     140     139     249     250     261     260       0       0
     108       2
     129     130     141     140     250     251     262     261       0       0
     109       2
     130     131     142     141     251     252     263     262       0       0
     110       2
     131     132     143     142     252     253     264     263       0       0
$ ... 1980 like lines cut
*CONTACT_AUTOMATIC_SURFACE_TO_SURFACE_ID
1         auto_contact_20220926_11541664164451_6e3034                           
         2         1         2         2                             0         0
                                                           0                    
                                                                                
*PART
auto_section_20220926_11541664164451_df3fc5
         1         1         1                             0         0          
*SECTION_SHELL_TITLE
auto_section_20220926_11541664164451_df3fc5
         1         2        1.        2.        1.         0         0
        1.        1.        1.        1.                            0.          
*PART
auto_section_20220926_11541664164451_413b56
         2         2         2                             0         0          
*SECTION_SOLID_TITLE
auto_section_20220926_11541664164451_413b56
         2         1
*BOUNDARY_SPC_SET_ID
         1                                                                      
         3                   1         1         1         1         1         1
*INITIAL_VELOCITY
$ANSA_ID;1;
         4         0         0         0         0
        0.        0.     -500.        0.        0.        0.
*MAT_ELASTIC_TITLE
auto_material_20220926_11541664164451_dce1c8
         1   7.85E-9   210000.       0.3        0.        0.        0.
*MAT_ELASTIC_TITLE
auto_material_20220926_11541664164451_d5c93f
         2   7.85E-9   210000.       0.3        0.        0.        0.
*SET_NODE_GENERAL_TITLE
plate
         3                                                  
PART               1
*SET_PART_TITLE
plate
         1                                                  
         1
*SET_NODE_GENERAL_TITLE
box
         4                                                  
PART               2
*SET_PART_TITLE
box
         2                                                  
         2
*END
